Data/networks/opendssNetworks/network_4/Feeder_6/Loads - Copy.txt
New Load.LOAD1 Phases=1 Bus1=76.1 kV=0.23 kW=1 PF=0.95
New Load.LOAD2 Phases=1 Bus1=80.2 kV=0.23 kW=1 PF=0.95
New Load.LOAD3 Phases=1 Bus1=88.3 kV=0.23 kW=1 PF=0.95
New Load.LOAD4 Phases=1 Bus1=89.1 kV=0.23 kW=1 PF=0.95
New Load.LOAD5 Phases=1 Bus1=96.2 kV=0.23 kW=1 PF=0.95
New Load.LOAD6 Phases=1 Bus1=99.3 kV=0.23 kW=1 PF=0.95
New Load.LOAD7 Phases=1 Bus1=173.1 kV=0.23 kW=1 PF=0.95
New Load.LOAD8 Phases=1 Bus1=184.1 kV=0.23 kW=1 PF=0.95
New Load.LOAD9 Phases=1 Bus1=190.2 kV=0.23 kW=1 PF=0.95
New Load.LOAD10 Phases=1 Bus1=209.1 kV=0.23 kW=1 PF=0.95
New Load.LOAD11 Phases=1 Bus1=220.2 kV=0.23 kW=1 PF=0.95
New Load.LOAD12 Phases=1 Bus1=227.3 kV=0.23 kW=1 PF=0.95
New Load.LOAD13 Phases=1 Bus1=234.1 kV=0.23 kW=1 PF=0.95
New Load.LOAD14 Phases=1 Bus1=241.2 kV=0.23 kW=1 PF=0.95
New Load.LOAD15 Phases=1 Bus1=245.2 kV=0.23 kW=1 PF=0.95
New Load.LOAD16 Phases=1 Bus1=250.3 kV=0.23 kW=1 PF=0.95
New Load.LOAD17 Phases=1 Bus1=264.3 kV=0.23 kW=1 PF=0.95
New Load.LOAD18 Phases=1 Bus1=324.1 kV=0.23 kW=1 PF=0.95
New Load.LOAD19 Phases=1 Bus1=329.2 kV=0.23 kW=1 PF=0.95
New Load.LOAD20 Phases=1 Bus1=352.3 kV=0.23 kW=1 PF=0.95
New Load.LOAD21 Phases=1 Bus1=358.1 kV=0.23 kW=1 PF=0.95
New Load.LOAD22 Phases=1 Bus1=367.2 kV=0.23 kW=1 PF=0.95
New Load.LOAD23 Phases=1 Bus1=394.3 kV=0.23 kW=1 PF=0.95
New Load.LOAD24 Phases=1 Bus1=395.1 kV=0.23 kW=1 PF=0.95
New Load.LOAD25 Phases=1 Bus1=398.2 kV=0.23 kW=1 PF=0.95
